CM Cantenna
CE 
GW     1     1   1.25000E-02  0.00000E+00  0.00000E+00  0.00000E+00  0.00000E+00  0.00000E+00  1.00000E-04
GW     2     1   1.25000E-02  0.00000E+00  0.00000E+00  1.22598E-02 -2.43863E-03  0.00000E+00  1.00000E-04
GW     3     1   1.22598E-02  2.43863E-03  0.00000E+00  0.00000E+00  0.00000E+00  0.00000E+00  1.00000E-04
GW     4     1   1.22598E-02  2.43863E-03  0.00000E+00  1.25000E-02  0.00000E+00  0.00000E+00  1.00000E-04
GW     5     1   1.15485E-02  4.78354E-03  0.00000E+00  0.00000E+00  0.00000E+00  0.00000E+00  1.00000E-04
GW     6     1   1.15485E-02  4.78354E-03  0.00000E+00  1.22598E-02  2.43863E-03  0.00000E+00  1.00000E-04
GW     7     1   1.03934E-02  6.94463E-03  0.00000E+00  0.00000E+00  0.00000E+00  0.00000E+00  1.00000E-04
GW     8     1   1.03934E-02  6.94463E-03  0.00000E+00  1.15485E-02  4.78354E-03  0.00000E+00  1.00000E-04
GW     9     1   8.83883E-03  8.83883E-03  0.00000E+00  0.00000E+00  0.00000E+00  0.00000E+00  1.00000E-04
GW    10     1   8.83883E-03  8.83883E-03  0.00000E+00  1.03934E-02  6.94463E-03  0.00000E+00  1.00000E-04
GW    11     1   6.94463E-03  1.03934E-02  0.00000E+00  0.00000E+00  0.00000E+00  0.00000E+00  1.00000E-04
GW    12     1   6.94463E-03  1.03934E-02  0.00000E+00  8.83883E-03  8.83883E-03  0.00000E+00  1.00000E-04
GW    13     1   4.78354E-03  1.15485E-02  0.00000E+00  0.00000E+00  0.00000E+00  0.00000E+00  1.00000E-04
GW    14     1   4.78354E-03  1.15485E-02  0.00000E+00  6.94463E-03  1.03934E-02  0.00000E+00  1.00000E-04
GW    15     1   2.43863E-03  1.22598E-02  0.00000E+00  0.00000E+00  0.00000E+00  0.00000E+00  1.00000E-04
GW    16     1   2.43863E-03  1.22598E-02  0.00000E+00  4.78354E-03  1.15485E-02  0.00000E+00  1.00000E-04
GW    17     1   0.00000E+00  1.25000E-02  0.00000E+00  0.00000E+00  0.00000E+00  0.00000E+00  1.00000E-04
GW    18     1   0.00000E+00  1.25000E-02  0.00000E+00  2.43863E-03  1.22598E-02  0.00000E+00  1.00000E-04
GW    19     1  -2.43863E-03  1.22598E-02  0.00000E+00 -0.00000E+00  0.00000E+00  0.00000E+00  1.00000E-04
GW    20     1  -2.43863E-03  1.22598E-02  0.00000E+00  0.00000E+00  1.25000E-02  0.00000E+00  1.00000E-04
GW    21     1  -4.78354E-03  1.15485E-02  0.00000E+00 -0.00000E+00  0.00000E+00  0.00000E+00  1.00000E-04
GW    22     1  -4.78354E-03  1.15485E-02  0.00000E+00 -2.43863E-03  1.22598E-02  0.00000E+00  1.00000E-04
GW    23     1  -6.94463E-03  1.03934E-02  0.00000E+00 -0.00000E+00  0.00000E+00  0.00000E+00  1.00000E-04
GW    24     1  -6.94463E-03  1.03934E-02  0.00000E+00 -4.78354E-03  1.15485E-02  0.00000E+00  1.00000E-04
GW    25     1  -8.83883E-03  8.83883E-03  0.00000E+00 -0.00000E+00  0.00000E+00  0.00000E+00  1.00000E-04
GW    26     1  -8.83883E-03  8.83883E-03  0.00000E+00 -6.94463E-03  1.03934E-02  0.00000E+00  1.00000E-04
GW    27     1  -1.03934E-02  6.94463E-03  0.00000E+00 -0.00000E+00  0.00000E+00  0.00000E+00  1.00000E-04
GW    28     1  -1.03934E-02  6.94463E-03  0.00000E+00 -8.83883E-03  8.83883E-03  0.00000E+00  1.00000E-04
GW    29     1  -1.15485E-02  4.78354E-03  0.00000E+00 -0.00000E+00  0.00000E+00  0.00000E+00  1.00000E-04
GW    30     1  -1.15485E-02  4.78354E-03  0.00000E+00 -1.03934E-02  6.94463E-03  0.00000E+00  1.00000E-04
GW    31     1  -1.22598E-02  2.43863E-03  0.00000E+00 -0.00000E+00  0.00000E+00  0.00000E+00  1.00000E-04
GW    32     1  -1.22598E-02  2.43863E-03  0.00000E+00 -1.15485E-02  4.78354E-03  0.00000E+00  1.00000E-04
GW    33     1  -1.25000E-02  0.00000E+00  0.00000E+00 -0.00000E+00  0.00000E+00  0.00000E+00  1.00000E-04
GW    34     1  -1.25000E-02  0.00000E+00  0.00000E+00 -1.22598E-02  2.43863E-03  0.00000E+00  1.00000E-04
GW    35     1  -1.22598E-02 -2.43863E-03  0.00000E+00 -0.00000E+00 -0.00000E+00  0.00000E+00  1.00000E-04
GW    36     1  -1.22598E-02 -2.43863E-03  0.00000E+00 -1.25000E-02  0.00000E+00  0.00000E+00  1.00000E-04
GW    37     1  -1.15485E-02 -4.78354E-03  0.00000E+00 -0.00000E+00 -0.00000E+00  0.00000E+00  1.00000E-04
GW    38     1  -1.15485E-02 -4.78354E-03  0.00000E+00 -1.22598E-02 -2.43863E-03  0.00000E+00  1.00000E-04
GW    39     1  -1.03934E-02 -6.94463E-03  0.00000E+00 -0.00000E+00 -0.00000E+00  0.00000E+00  1.00000E-04
GW    40     1  -1.03934E-02 -6.94463E-03  0.00000E+00 -1.15485E-02 -4.78354E-03  0.00000E+00  1.00000E-04
GW    41     1  -8.83883E-03 -8.83883E-03  0.00000E+00 -0.00000E+00 -0.00000E+00  0.00000E+00  1.00000E-04
GW    42     1  -8.83883E-03 -8.83883E-03  0.00000E+00 -1.03934E-02 -6.94463E-03  0.00000E+00  1.00000E-04
GW    43     1  -6.94463E-03 -1.03934E-02  0.00000E+00 -0.00000E+00 -0.00000E+00  0.00000E+00  1.00000E-04
GW    44     1  -6.94463E-03 -1.03934E-02  0.00000E+00 -8.83883E-03 -8.83883E-03  0.00000E+00  1.00000E-04
GW    45     1  -4.78354E-03 -1.15485E-02  0.00000E+00 -0.00000E+00 -0.00000E+00  0.00000E+00  1.00000E-04
GW    46     1  -4.78354E-03 -1.15485E-02  0.00000E+00 -6.94463E-03 -1.03934E-02  0.00000E+00  1.00000E-04
GW    47     1  -2.43863E-03 -1.22598E-02  0.00000E+00 -0.00000E+00 -0.00000E+00  0.00000E+00  1.00000E-04
GW    48     1  -2.43863E-03 -1.22598E-02  0.00000E+00 -4.78354E-03 -1.15485E-02  0.00000E+00  1.00000E-04
GW    49     1  -0.00000E+00 -1.25000E-02  0.00000E+00 -0.00000E+00 -0.00000E+00  0.00000E+00  1.00000E-04
GW    50     1  -0.00000E+00 -1.25000E-02  0.00000E+00 -2.43863E-03 -1.22598E-02  0.00000E+00  1.00000E-04
GW    51     1   2.43863E-03 -1.22598E-02  0.00000E+00  0.00000E+00 -0.00000E+00  0.00000E+00  1.00000E-04
GW    52     1   2.43863E-03 -1.22598E-02  0.00000E+00 -0.00000E+00 -1.25000E-02  0.00000E+00  1.00000E-04
GW    53     1   4.78354E-03 -1.15485E-02  0.00000E+00  0.00000E+00 -0.00000E+00  0.00000E+00  1.00000E-04
GW    54     1   4.78354E-03 -1.15485E-02  0.00000E+00  2.43863E-03 -1.22598E-02  0.00000E+00  1.00000E-04
GW    55     1   6.94463E-03 -1.03934E-02  0.00000E+00  0.00000E+00 -0.00000E+00  0.00000E+00  1.00000E-04
GW    56     1   6.94463E-03 -1.03934E-02  0.00000E+00  4.78354E-03 -1.15485E-02  0.00000E+00  1.00000E-04
GW    57     1   8.83883E-03 -8.83883E-03  0.00000E+00  0.00000E+00 -0.00000E+00  0.00000E+00  1.00000E-04
GW    58     1   8.83883E-03 -8.83883E-03  0.00000E+00  6.94463E-03 -1.03934E-02  0.00000E+00  1.00000E-04
GW    59     1   1.03934E-02 -6.94463E-03  0.00000E+00  0.00000E+00 -0.00000E+00  0.00000E+00  1.00000E-04
GW    60     1   1.03934E-02 -6.94463E-03  0.00000E+00  8.83883E-03 -8.83883E-03  0.00000E+00  1.00000E-04
GW    61     1   1.15485E-02 -4.78354E-03  0.00000E+00  0.00000E+00 -0.00000E+00  0.00000E+00  1.00000E-04
GW    62     1   1.15485E-02 -4.78354E-03  0.00000E+00  1.03934E-02 -6.94463E-03  0.00000E+00  1.00000E-04
GW    63     1   1.22598E-02 -2.43863E-03  0.00000E+00  0.00000E+00 -0.00000E+00  0.00000E+00  1.00000E-04
GW    64     1   1.22598E-02 -2.43863E-03  0.00000E+00  1.15485E-02 -4.78354E-03  0.00000E+00  1.00000E-04
GW    65     1   2.50000E-02  0.00000E+00  0.00000E+00  1.25000E-02  0.00000E+00  0.00000E+00  1.00000E-04
GW    66     1   2.50000E-02  0.00000E+00  0.00000E+00  2.45196E-02 -4.87726E-03  0.00000E+00  1.00000E-04
GW    67     1   2.45196E-02  4.87726E-03  0.00000E+00  1.22598E-02  2.43863E-03  0.00000E+00  1.00000E-04
GW    68     1   2.45196E-02  4.87726E-03  0.00000E+00  2.50000E-02  0.00000E+00  0.00000E+00  1.00000E-04
GW    69     1   2.30970E-02  9.56709E-03  0.00000E+00  1.15485E-02  4.78354E-03  0.00000E+00  1.00000E-04
GW    70     1   2.30970E-02  9.56709E-03  0.00000E+00  2.45196E-02  4.87726E-03  0.00000E+00  1.00000E-04
GW    71     1   2.07867E-02  1.38893E-02  0.00000E+00  1.03934E-02  6.94463E-03  0.00000E+00  1.00000E-04
GW    72     1   2.07867E-02  1.38893E-02  0.00000E+00  2.30970E-02  9.56709E-03  0.00000E+00  1.00000E-04
GW    73     1   1.76777E-02  1.76777E-02  0.00000E+00  8.83883E-03  8.83883E-03  0.00000E+00  1.00000E-04
GW    74     1   1.76777E-02  1.76777E-02  0.00000E+00  2.07867E-02  1.38893E-02  0.00000E+00  1.00000E-04
GW    75     1   1.38893E-02  2.07867E-02  0.00000E+00  6.94463E-03  1.03934E-02  0.00000E+00  1.00000E-04
GW    76     1   1.38893E-02  2.07867E-02  0.00000E+00  1.76777E-02  1.76777E-02  0.00000E+00  1.00000E-04
GW    77     1   9.56709E-03  2.30970E-02  0.00000E+00  4.78354E-03  1.15485E-02  0.00000E+00  1.00000E-04
GW    78     1   9.56709E-03  2.30970E-02  0.00000E+00  1.38893E-02  2.07867E-02  0.00000E+00  1.00000E-04
GW    79     1   4.87726E-03  2.45196E-02  0.00000E+00  2.43863E-03  1.22598E-02  0.00000E+00  1.00000E-04
GW    80     1   4.87726E-03  2.45196E-02  0.00000E+00  9.56709E-03  2.30970E-02  0.00000E+00  1.00000E-04
GW    81     1   0.00000E+00  2.50000E-02  0.00000E+00  0.00000E+00  1.25000E-02  0.00000E+00  1.00000E-04
GW    82     1   0.00000E+00  2.50000E-02  0.00000E+00  4.87726E-03  2.45196E-02  0.00000E+00  1.00000E-04
GW    83     1  -4.87726E-03  2.45196E-02  0.00000E+00 -2.43863E-03  1.22598E-02  0.00000E+00  1.00000E-04
GW    84     1  -4.87726E-03  2.45196E-02  0.00000E+00  0.00000E+00  2.50000E-02  0.00000E+00  1.00000E-04
GW    85     1  -9.56709E-03  2.30970E-02  0.00000E+00 -4.78354E-03  1.15485E-02  0.00000E+00  1.00000E-04
GW    86     1  -9.56709E-03  2.30970E-02  0.00000E+00 -4.87726E-03  2.45196E-02  0.00000E+00  1.00000E-04
GW    87     1  -1.38893E-02  2.07867E-02  0.00000E+00 -6.94463E-03  1.03934E-02  0.00000E+00  1.00000E-04
GW    88     1  -1.38893E-02  2.07867E-02  0.00000E+00 -9.56709E-03  2.30970E-02  0.00000E+00  1.00000E-04
GW    89     1  -1.76777E-02  1.76777E-02  0.00000E+00 -8.83883E-03  8.83883E-03  0.00000E+00  1.00000E-04
GW    90     1  -1.76777E-02  1.76777E-02  0.00000E+00 -1.38893E-02  2.07867E-02  0.00000E+00  1.00000E-04
GW    91     1  -2.07867E-02  1.38893E-02  0.00000E+00 -1.03934E-02  6.94463E-03  0.00000E+00  1.00000E-04
GW    92     1  -2.07867E-02  1.38893E-02  0.00000E+00 -1.76777E-02  1.76777E-02  0.00000E+00  1.00000E-04
GW    93     1  -2.30970E-02  9.56709E-03  0.00000E+00 -1.15485E-02  4.78354E-03  0.00000E+00  1.00000E-04
GW    94     1  -2.30970E-02  9.56709E-03  0.00000E+00 -2.07867E-02  1.38893E-02  0.00000E+00  1.00000E-04
GW    95     1  -2.45196E-02  4.87726E-03  0.00000E+00 -1.22598E-02  2.43863E-03  0.00000E+00  1.00000E-04
GW    96     1  -2.45196E-02  4.87726E-03  0.00000E+00 -2.30970E-02  9.56709E-03  0.00000E+00  1.00000E-04
GW    97     1  -2.50000E-02  0.00000E+00  0.00000E+00 -1.25000E-02  0.00000E+00  0.00000E+00  1.00000E-04
GW    98     1  -2.50000E-02  0.00000E+00  0.00000E+00 -2.45196E-02  4.87726E-03  0.00000E+00  1.00000E-04
GW    99     1  -2.45196E-02 -4.87726E-03  0.00000E+00 -1.22598E-02 -2.43863E-03  0.00000E+00  1.00000E-04
GW   100     1  -2.45196E-02 -4.87726E-03  0.00000E+00 -2.50000E-02  0.00000E+00  0.00000E+00  1.00000E-04
GW   101     1  -2.30970E-02 -9.56709E-03  0.00000E+00 -1.15485E-02 -4.78354E-03  0.00000E+00  1.00000E-04
GW   102     1  -2.30970E-02 -9.56709E-03  0.00000E+00 -2.45196E-02 -4.87726E-03  0.00000E+00  1.00000E-04
GW   103     1  -2.07867E-02 -1.38893E-02  0.00000E+00 -1.03934E-02 -6.94463E-03  0.00000E+00  1.00000E-04
GW   104     1  -2.07867E-02 -1.38893E-02  0.00000E+00 -2.30970E-02 -9.56709E-03  0.00000E+00  1.00000E-04
GW   105     1  -1.76777E-02 -1.76777E-02  0.00000E+00 -8.83883E-03 -8.83883E-03  0.00000E+00  1.00000E-04
GW   106     1  -1.76777E-02 -1.76777E-02  0.00000E+00 -2.07867E-02 -1.38893E-02  0.00000E+00  1.00000E-04
GW   107     1  -1.38893E-02 -2.07867E-02  0.00000E+00 -6.94463E-03 -1.03934E-02  0.00000E+00  1.00000E-04
GW   108     1  -1.38893E-02 -2.07867E-02  0.00000E+00 -1.76777E-02 -1.76777E-02  0.00000E+00  1.00000E-04
GW   109     1  -9.56709E-03 -2.30970E-02  0.00000E+00 -4.78354E-03 -1.15485E-02  0.00000E+00  1.00000E-04
GW   110     1  -9.56709E-03 -2.30970E-02  0.00000E+00 -1.38893E-02 -2.07867E-02  0.00000E+00  1.00000E-04
GW   111     1  -4.87726E-03 -2.45196E-02  0.00000E+00 -2.43863E-03 -1.22598E-02  0.00000E+00  1.00000E-04
GW   112     1  -4.87726E-03 -2.45196E-02  0.00000E+00 -9.56709E-03 -2.30970E-02  0.00000E+00  1.00000E-04
GW   113     1  -0.00000E+00 -2.50000E-02  0.00000E+00 -0.00000E+00 -1.25000E-02  0.00000E+00  1.00000E-04
GW   114     1  -0.00000E+00 -2.50000E-02  0.00000E+00 -4.87726E-03 -2.45196E-02  0.00000E+00  1.00000E-04
GW   115     1   4.87726E-03 -2.45196E-02  0.00000E+00  2.43863E-03 -1.22598E-02  0.00000E+00  1.00000E-04
GW   116     1   4.87726E-03 -2.45196E-02  0.00000E+00 -0.00000E+00 -2.50000E-02  0.00000E+00  1.00000E-04
GW   117     1   9.56709E-03 -2.30970E-02  0.00000E+00  4.78354E-03 -1.15485E-02  0.00000E+00  1.00000E-04
GW   118     1   9.56709E-03 -2.30970E-02  0.00000E+00  4.87726E-03 -2.45196E-02  0.00000E+00  1.00000E-04
GW   119     1   1.38893E-02 -2.07867E-02  0.00000E+00  6.94463E-03 -1.03934E-02  0.00000E+00  1.00000E-04
GW   120     1   1.38893E-02 -2.07867E-02  0.00000E+00  9.56709E-03 -2.30970E-02  0.00000E+00  1.00000E-04
GW   121     1   1.76777E-02 -1.76777E-02  0.00000E+00  8.83883E-03 -8.83883E-03  0.00000E+00  1.00000E-04
GW   122     1   1.76777E-02 -1.76777E-02  0.00000E+00  1.38893E-02 -2.07867E-02  0.00000E+00  1.00000E-04
GW   123     1   2.07867E-02 -1.38893E-02  0.00000E+00  1.03934E-02 -6.94463E-03  0.00000E+00  1.00000E-04
GW   124     1   2.07867E-02 -1.38893E-02  0.00000E+00  1.76777E-02 -1.76777E-02  0.00000E+00  1.00000E-04
GW   125     1   2.30970E-02 -9.56709E-03  0.00000E+00  1.15485E-02 -4.78354E-03  0.00000E+00  1.00000E-04
GW   126     1   2.30970E-02 -9.56709E-03  0.00000E+00  2.07867E-02 -1.38893E-02  0.00000E+00  1.00000E-04
GW   127     1   2.45196E-02 -4.87726E-03  0.00000E+00  1.22598E-02 -2.43863E-03  0.00000E+00  1.00000E-04
GW   128     1   2.45196E-02 -4.87726E-03  0.00000E+00  2.30970E-02 -9.56709E-03  0.00000E+00  1.00000E-04
GW   129     1   3.75000E-02  0.00000E+00  0.00000E+00  2.50000E-02  0.00000E+00  0.00000E+00  1.00000E-04
GW   130     1   3.75000E-02  0.00000E+00  0.00000E+00  3.67794E-02 -7.31589E-03  0.00000E+00  1.00000E-04
GW   131     1   3.67794E-02  7.31589E-03  0.00000E+00  2.45196E-02  4.87726E-03  0.00000E+00  1.00000E-04
GW   132     1   3.67794E-02  7.31589E-03  0.00000E+00  3.75000E-02  0.00000E+00  0.00000E+00  1.00000E-04
GW   133     1   3.46455E-02  1.43506E-02  0.00000E+00  2.30970E-02  9.56709E-03  0.00000E+00  1.00000E-04
GW   134     1   3.46455E-02  1.43506E-02  0.00000E+00  3.67794E-02  7.31589E-03  0.00000E+00  1.00000E-04
GW   135     1   3.11801E-02  2.08339E-02  0.00000E+00  2.07867E-02  1.38893E-02  0.00000E+00  1.00000E-04
GW   136     1   3.11801E-02  2.08339E-02  0.00000E+00  3.46455E-02  1.43506E-02  0.00000E+00  1.00000E-04
GW   137     1   2.65165E-02  2.65165E-02  0.00000E+00  1.76777E-02  1.76777E-02  0.00000E+00  1.00000E-04
GW   138     1   2.65165E-02  2.65165E-02  0.00000E+00  3.11801E-02  2.08339E-02  0.00000E+00  1.00000E-04
GW   139     1   2.08339E-02  3.11801E-02  0.00000E+00  1.38893E-02  2.07867E-02  0.00000E+00  1.00000E-04
GW   140     1   2.08339E-02  3.11801E-02  0.00000E+00  2.65165E-02  2.65165E-02  0.00000E+00  1.00000E-04
GW   141     1   1.43506E-02  3.46455E-02  0.00000E+00  9.56709E-03  2.30970E-02  0.00000E+00  1.00000E-04
GW   142     1   1.43506E-02  3.46455E-02  0.00000E+00  2.08339E-02  3.11801E-02  0.00000E+00  1.00000E-04
GW   143     1   7.31589E-03  3.67794E-02  0.00000E+00  4.87726E-03  2.45196E-02  0.00000E+00  1.00000E-04
GW   144     1   7.31589E-03  3.67794E-02  0.00000E+00  1.43506E-02  3.46455E-02  0.00000E+00  1.00000E-04
GW   145     1   0.00000E+00  3.75000E-02  0.00000E+00  0.00000E+00  2.50000E-02  0.00000E+00  1.00000E-04
GW   146     1   0.00000E+00  3.75000E-02  0.00000E+00  7.31589E-03  3.67794E-02  0.00000E+00  1.00000E-04
GW   147     1  -7.31589E-03  3.67794E-02  0.00000E+00 -4.87726E-03  2.45196E-02  0.00000E+00  1.00000E-04
GW   148     1  -7.31589E-03  3.67794E-02  0.00000E+00  0.00000E+00  3.75000E-02  0.00000E+00  1.00000E-04
GW   149     1  -1.43506E-02  3.46455E-02  0.00000E+00 -9.56709E-03  2.30970E-02  0.00000E+00  1.00000E-04
GW   150     1  -1.43506E-02  3.46455E-02  0.00000E+00 -7.31589E-03  3.67794E-02  0.00000E+00  1.00000E-04
GW   151     1  -2.08339E-02  3.11801E-02  0.00000E+00 -1.38893E-02  2.07867E-02  0.00000E+00  1.00000E-04
GW   152     1  -2.08339E-02  3.11801E-02  0.00000E+00 -1.43506E-02  3.46455E-02  0.00000E+00  1.00000E-04
GW   153     1  -2.65165E-02  2.65165E-02  0.00000E+00 -1.76777E-02  1.76777E-02  0.00000E+00  1.00000E-04
GW   154     1  -2.65165E-02  2.65165E-02  0.00000E+00 -2.08339E-02  3.11801E-02  0.00000E+00  1.00000E-04
GW   155     1  -3.11801E-02  2.08339E-02  0.00000E+00 -2.07867E-02  1.38893E-02  0.00000E+00  1.00000E-04
GW   156     1  -3.11801E-02  2.08339E-02  0.00000E+00 -2.65165E-02  2.65165E-02  0.00000E+00  1.00000E-04
GW   157     1  -3.46455E-02  1.43506E-02  0.00000E+00 -2.30970E-02  9.56709E-03  0.00000E+00  1.00000E-04
GW   158     1  -3.46455E-02  1.43506E-02  0.00000E+00 -3.11801E-02  2.08339E-02  0.00000E+00  1.00000E-04
GW   159     1  -3.67794E-02  7.31589E-03  0.00000E+00 -2.45196E-02  4.87726E-03  0.00000E+00  1.00000E-04
GW   160     1  -3.67794E-02  7.31589E-03  0.00000E+00 -3.46455E-02  1.43506E-02  0.00000E+00  1.00000E-04
GW   161     1  -3.75000E-02  0.00000E+00  0.00000E+00 -2.50000E-02  0.00000E+00  0.00000E+00  1.00000E-04
GW   162     1  -3.75000E-02  0.00000E+00  0.00000E+00 -3.67794E-02  7.31589E-03  0.00000E+00  1.00000E-04
GW   163     1  -3.67794E-02 -7.31589E-03  0.00000E+00 -2.45196E-02 -4.87726E-03  0.00000E+00  1.00000E-04
GW   164     1  -3.67794E-02 -7.31589E-03  0.00000E+00 -3.75000E-02  0.00000E+00  0.00000E+00  1.00000E-04
GW   165     1  -3.46455E-02 -1.43506E-02  0.00000E+00 -2.30970E-02 -9.56709E-03  0.00000E+00  1.00000E-04
GW   166     1  -3.46455E-02 -1.43506E-02  0.00000E+00 -3.67794E-02 -7.31589E-03  0.00000E+00  1.00000E-04
GW   167     1  -3.11801E-02 -2.08339E-02  0.00000E+00 -2.07867E-02 -1.38893E-02  0.00000E+00  1.00000E-04
GW   168     1  -3.11801E-02 -2.08339E-02  0.00000E+00 -3.46455E-02 -1.43506E-02  0.00000E+00  1.00000E-04
GW   169     1  -2.65165E-02 -2.65165E-02  0.00000E+00 -1.76777E-02 -1.76777E-02  0.00000E+00  1.00000E-04
GW   170     1  -2.65165E-02 -2.65165E-02  0.00000E+00 -3.11801E-02 -2.08339E-02  0.00000E+00  1.00000E-04
GW   171     1  -2.08339E-02 -3.11801E-02  0.00000E+00 -1.38893E-02 -2.07867E-02  0.00000E+00  1.00000E-04
GW   172     1  -2.08339E-02 -3.11801E-02  0.00000E+00 -2.65165E-02 -2.65165E-02  0.00000E+00  1.00000E-04
GW   173     1  -1.43506E-02 -3.46455E-02  0.00000E+00 -9.56709E-03 -2.30970E-02  0.00000E+00  1.00000E-04
GW   174     1  -1.43506E-02 -3.46455E-02  0.00000E+00 -2.08339E-02 -3.11801E-02  0.00000E+00  1.00000E-04
GW   175     1  -7.31589E-03 -3.67794E-02  0.00000E+00 -4.87726E-03 -2.45196E-02  0.00000E+00  1.00000E-04
GW   176     1  -7.31589E-03 -3.67794E-02  0.00000E+00 -1.43506E-02 -3.46455E-02  0.00000E+00  1.00000E-04
GW   177     1  -0.00000E+00 -3.75000E-02  0.00000E+00 -0.00000E+00 -2.50000E-02  0.00000E+00  1.00000E-04
GW   178     1  -0.00000E+00 -3.75000E-02  0.00000E+00 -7.31589E-03 -3.67794E-02  0.00000E+00  1.00000E-04
GW   179     1   7.31589E-03 -3.67794E-02  0.00000E+00  4.87726E-03 -2.45196E-02  0.00000E+00  1.00000E-04
GW   180     1   7.31589E-03 -3.67794E-02  0.00000E+00 -0.00000E+00 -3.75000E-02  0.00000E+00  1.00000E-04
GW   181     1   1.43506E-02 -3.46455E-02  0.00000E+00  9.56709E-03 -2.30970E-02  0.00000E+00  1.00000E-04
GW   182     1   1.43506E-02 -3.46455E-02  0.00000E+00  7.31589E-03 -3.67794E-02  0.00000E+00  1.00000E-04
GW   183     1   2.08339E-02 -3.11801E-02  0.00000E+00  1.38893E-02 -2.07867E-02  0.00000E+00  1.00000E-04
GW   184     1   2.08339E-02 -3.11801E-02  0.00000E+00  1.43506E-02 -3.46455E-02  0.00000E+00  1.00000E-04
GW   185     1   2.65165E-02 -2.65165E-02  0.00000E+00  1.76777E-02 -1.76777E-02  0.00000E+00  1.00000E-04
GW   186     1   2.65165E-02 -2.65165E-02  0.00000E+00  2.08339E-02 -3.11801E-02  0.00000E+00  1.00000E-04
GW   187     1   3.11801E-02 -2.08339E-02  0.00000E+00  2.07867E-02 -1.38893E-02  0.00000E+00  1.00000E-04
GW   188     1   3.11801E-02 -2.08339E-02  0.00000E+00  2.65165E-02 -2.65165E-02  0.00000E+00  1.00000E-04
GW   189     1   3.46455E-02 -1.43506E-02  0.00000E+00  2.30970E-02 -9.56709E-03  0.00000E+00  1.00000E-04
GW   190     1   3.46455E-02 -1.43506E-02  0.00000E+00  3.11801E-02 -2.08339E-02  0.00000E+00  1.00000E-04
GW   191     1   3.67794E-02 -7.31589E-03  0.00000E+00  2.45196E-02 -4.87726E-03  0.00000E+00  1.00000E-04
GW   192     1   3.67794E-02 -7.31589E-03  0.00000E+00  3.46455E-02 -1.43506E-02  0.00000E+00  1.00000E-04
GW   193     1   5.00000E-02  0.00000E+00  0.00000E+00  3.75000E-02  0.00000E+00  0.00000E+00  1.00000E-04
GW   194     1   5.00000E-02  0.00000E+00  0.00000E+00  4.90393E-02 -9.75452E-03  0.00000E+00  1.00000E-04
GW   195     1   4.90393E-02  9.75452E-03  0.00000E+00  3.67794E-02  7.31589E-03  0.00000E+00  1.00000E-04
GW   196     1   4.90393E-02  9.75452E-03  0.00000E+00  5.00000E-02  0.00000E+00  0.00000E+00  1.00000E-04
GW   197     1   4.61940E-02  1.91342E-02  0.00000E+00  3.46455E-02  1.43506E-02  0.00000E+00  1.00000E-04
GW   198     1   4.61940E-02  1.91342E-02  0.00000E+00  4.90393E-02  9.75452E-03  0.00000E+00  1.00000E-04
GW   199     1   4.15735E-02  2.77785E-02  0.00000E+00  3.11801E-02  2.08339E-02  0.00000E+00  1.00000E-04
GW   200     1   4.15735E-02  2.77785E-02  0.00000E+00  4.61940E-02  1.91342E-02  0.00000E+00  1.00000E-04
GW   201     1   3.53553E-02  3.53553E-02  0.00000E+00  2.65165E-02  2.65165E-02  0.00000E+00  1.00000E-04
GW   202     1   3.53553E-02  3.53553E-02  0.00000E+00  4.15735E-02  2.77785E-02  0.00000E+00  1.00000E-04
GW   203     1   2.77785E-02  4.15735E-02  0.00000E+00  2.08339E-02  3.11801E-02  0.00000E+00  1.00000E-04
GW   204     1   2.77785E-02  4.15735E-02  0.00000E+00  3.53553E-02  3.53553E-02  0.00000E+00  1.00000E-04
GW   205     1   1.91342E-02  4.61940E-02  0.00000E+00  1.43506E-02  3.46455E-02  0.00000E+00  1.00000E-04
GW   206     1   1.91342E-02  4.61940E-02  0.00000E+00  2.77785E-02  4.15735E-02  0.00000E+00  1.00000E-04
GW   207     1   9.75452E-03  4.90393E-02  0.00000E+00  7.31589E-03  3.67794E-02  0.00000E+00  1.00000E-04
GW   208     1   9.75452E-03  4.90393E-02  0.00000E+00  1.91342E-02  4.61940E-02  0.00000E+00  1.00000E-04
GW   209     1   0.00000E+00  5.00000E-02  0.00000E+00  0.00000E+00  3.75000E-02  0.00000E+00  1.00000E-04
GW   210     1   0.00000E+00  5.00000E-02  0.00000E+00  9.75452E-03  4.90393E-02  0.00000E+00  1.00000E-04
GW   211     1  -9.75452E-03  4.90393E-02  0.00000E+00 -7.31589E-03  3.67794E-02  0.00000E+00  1.00000E-04
GW   212     1  -9.75452E-03  4.90393E-02  0.00000E+00  0.00000E+00  5.00000E-02  0.00000E+00  1.00000E-04
GW   213     1  -1.91342E-02  4.61940E-02  0.00000E+00 -1.43506E-02  3.46455E-02  0.00000E+00  1.00000E-04
GW   214     1  -1.91342E-02  4.61940E-02  0.00000E+00 -9.75452E-03  4.90393E-02  0.00000E+00  1.00000E-04
GW   215     1  -2.77785E-02  4.15735E-02  0.00000E+00 -2.08339E-02  3.11801E-02  0.00000E+00  1.00000E-04
GW   216     1  -2.77785E-02  4.15735E-02  0.00000E+00 -1.91342E-02  4.61940E-02  0.00000E+00  1.00000E-04
GW   217     1  -3.53553E-02  3.53553E-02  0.00000E+00 -2.65165E-02  2.65165E-02  0.00000E+00  1.00000E-04
GW   218     1  -3.53553E-02  3.53553E-02  0.00000E+00 -2.77785E-02  4.15735E-02  0.00000E+00  1.00000E-04
GW   219     1  -4.15735E-02  2.77785E-02  0.00000E+00 -3.11801E-02  2.08339E-02  0.00000E+00  1.00000E-04
GW   220     1  -4.15735E-02  2.77785E-02  0.00000E+00 -3.53553E-02  3.53553E-02  0.00000E+00  1.00000E-04
GW   221     1  -4.61940E-02  1.91342E-02  0.00000E+00 -3.46455E-02  1.43506E-02  0.00000E+00  1.00000E-04
GW   222     1  -4.61940E-02  1.91342E-02  0.00000E+00 -4.15735E-02  2.77785E-02  0.00000E+00  1.00000E-04
GW   223     1  -4.90393E-02  9.75452E-03  0.00000E+00 -3.67794E-02  7.31589E-03  0.00000E+00  1.00000E-04
GW   224     1  -4.90393E-02  9.75452E-03  0.00000E+00 -4.61940E-02  1.91342E-02  0.00000E+00  1.00000E-04
GW   225     1  -5.00000E-02  0.00000E+00  0.00000E+00 -3.75000E-02  0.00000E+00  0.00000E+00  1.00000E-04
GW   226     1  -5.00000E-02  0.00000E+00  0.00000E+00 -4.90393E-02  9.75452E-03  0.00000E+00  1.00000E-04
GW   227     1  -4.90393E-02 -9.75452E-03  0.00000E+00 -3.67794E-02 -7.31589E-03  0.00000E+00  1.00000E-04
GW   228     1  -4.90393E-02 -9.75452E-03  0.00000E+00 -5.00000E-02  0.00000E+00  0.00000E+00  1.00000E-04
GW   229     1  -4.61940E-02 -1.91342E-02  0.00000E+00 -3.46455E-02 -1.43506E-02  0.00000E+00  1.00000E-04
GW   230     1  -4.61940E-02 -1.91342E-02  0.00000E+00 -4.90393E-02 -9.75452E-03  0.00000E+00  1.00000E-04
GW   231     1  -4.15735E-02 -2.77785E-02  0.00000E+00 -3.11801E-02 -2.08339E-02  0.00000E+00  1.00000E-04
GW   232     1  -4.15735E-02 -2.77785E-02  0.00000E+00 -4.61940E-02 -1.91342E-02  0.00000E+00  1.00000E-04
GW   233     1  -3.53553E-02 -3.53553E-02  0.00000E+00 -2.65165E-02 -2.65165E-02  0.00000E+00  1.00000E-04
GW   234     1  -3.53553E-02 -3.53553E-02  0.00000E+00 -4.15735E-02 -2.77785E-02  0.00000E+00  1.00000E-04
GW   235     1  -2.77785E-02 -4.15735E-02  0.00000E+00 -2.08339E-02 -3.11801E-02  0.00000E+00  1.00000E-04
GW   236     1  -2.77785E-02 -4.15735E-02  0.00000E+00 -3.53553E-02 -3.53553E-02  0.00000E+00  1.00000E-04
GW   237     1  -1.91342E-02 -4.61940E-02  0.00000E+00 -1.43506E-02 -3.46455E-02  0.00000E+00  1.00000E-04
GW   238     1  -1.91342E-02 -4.61940E-02  0.00000E+00 -2.77785E-02 -4.15735E-02  0.00000E+00  1.00000E-04
GW   239     1  -9.75452E-03 -4.90393E-02  0.00000E+00 -7.31589E-03 -3.67794E-02  0.00000E+00  1.00000E-04
GW   240     1  -9.75452E-03 -4.90393E-02  0.00000E+00 -1.91342E-02 -4.61940E-02  0.00000E+00  1.00000E-04
GW   241     1  -0.00000E+00 -5.00000E-02  0.00000E+00 -0.00000E+00 -3.75000E-02  0.00000E+00  1.00000E-04
GW   242     1  -0.00000E+00 -5.00000E-02  0.00000E+00 -9.75452E-03 -4.90393E-02  0.00000E+00  1.00000E-04
GW   243     1   9.75452E-03 -4.90393E-02  0.00000E+00  7.31589E-03 -3.67794E-02  0.00000E+00  1.00000E-04
GW   244     1   9.75452E-03 -4.90393E-02  0.00000E+00 -0.00000E+00 -5.00000E-02  0.00000E+00  1.00000E-04
GW   245     1   1.91342E-02 -4.61940E-02  0.00000E+00  1.43506E-02 -3.46455E-02  0.00000E+00  1.00000E-04
GW   246     1   1.91342E-02 -4.61940E-02  0.00000E+00  9.75452E-03 -4.90393E-02  0.00000E+00  1.00000E-04
GW   247     1   2.77785E-02 -4.15735E-02  0.00000E+00  2.08339E-02 -3.11801E-02  0.00000E+00  1.00000E-04
GW   248     1   2.77785E-02 -4.15735E-02  0.00000E+00  1.91342E-02 -4.61940E-02  0.00000E+00  1.00000E-04
GW   249     1   3.53553E-02 -3.53553E-02  0.00000E+00  2.65165E-02 -2.65165E-02  0.00000E+00  1.00000E-04
GW   250     1   3.53553E-02 -3.53553E-02  0.00000E+00  2.77785E-02 -4.15735E-02  0.00000E+00  1.00000E-04
GW   251     1   4.15735E-02 -2.77785E-02  0.00000E+00  3.11801E-02 -2.08339E-02  0.00000E+00  1.00000E-04
GW   252     1   4.15735E-02 -2.77785E-02  0.00000E+00  3.53553E-02 -3.53553E-02  0.00000E+00  1.00000E-04
GW   253     1   4.61940E-02 -1.91342E-02  0.00000E+00  3.46455E-02 -1.43506E-02  0.00000E+00  1.00000E-04
GW   254     1   4.61940E-02 -1.91342E-02  0.00000E+00  4.15735E-02 -2.77785E-02  0.00000E+00  1.00000E-04
GW   255     1   4.90393E-02 -9.75452E-03  0.00000E+00  3.67794E-02 -7.31589E-03  0.00000E+00  1.00000E-04
GW   256     1   4.90393E-02 -9.75452E-03  0.00000E+00  4.61940E-02 -1.91342E-02  0.00000E+00  1.00000E-04
GW   257     1   5.00000E-02  0.00000E+00  1.00000E-02  4.90393E-02 -9.75452E-03  1.00000E-02  1.00000E-04
GW   258     1   4.90393E-02  9.75452E-03  1.00000E-02  4.90393E-02  9.75452E-03  0.00000E+00  1.00000E-04
GW   259     1   4.90393E-02  9.75452E-03  1.00000E-02  5.00000E-02  0.00000E+00  1.00000E-02  1.00000E-04
GW   260     1   4.61940E-02  1.91342E-02  1.00000E-02  4.61940E-02  1.91342E-02  0.00000E+00  1.00000E-04
GW   261     1   4.61940E-02  1.91342E-02  1.00000E-02  4.90393E-02  9.75452E-03  1.00000E-02  1.00000E-04
GW   262     1   4.15735E-02  2.77785E-02  1.00000E-02  4.15735E-02  2.77785E-02  0.00000E+00  1.00000E-04
GW   263     1   4.15735E-02  2.77785E-02  1.00000E-02  4.61940E-02  1.91342E-02  1.00000E-02  1.00000E-04
GW   264     1   3.53553E-02  3.53553E-02  1.00000E-02  3.53553E-02  3.53553E-02  0.00000E+00  1.00000E-04
GW   265     1   3.53553E-02  3.53553E-02  1.00000E-02  4.15735E-02  2.77785E-02  1.00000E-02  1.00000E-04
GW   266     1   2.77785E-02  4.15735E-02  1.00000E-02  2.77785E-02  4.15735E-02  0.00000E+00  1.00000E-04
GW   267     1   2.77785E-02  4.15735E-02  1.00000E-02  3.53553E-02  3.53553E-02  1.00000E-02  1.00000E-04
GW   268     1   1.91342E-02  4.61940E-02  1.00000E-02  1.91342E-02  4.61940E-02  0.00000E+00  1.00000E-04
GW   269     1   1.91342E-02  4.61940E-02  1.00000E-02  2.77785E-02  4.15735E-02  1.00000E-02  1.00000E-04
GW   270     1   9.75452E-03  4.90393E-02  1.00000E-02  9.75452E-03  4.90393E-02  0.00000E+00  1.00000E-04
GW   271     1   9.75452E-03  4.90393E-02  1.00000E-02  1.91342E-02  4.61940E-02  1.00000E-02  1.00000E-04
GW   272     1   0.00000E+00  5.00000E-02  1.00000E-02  0.00000E+00  5.00000E-02  0.00000E+00  1.00000E-04
GW   273     1   0.00000E+00  5.00000E-02  1.00000E-02  9.75452E-03  4.90393E-02  1.00000E-02  1.00000E-04
GW   274     1  -9.75452E-03  4.90393E-02  1.00000E-02 -9.75452E-03  4.90393E-02  0.00000E+00  1.00000E-04
GW   275     1  -9.75452E-03  4.90393E-02  1.00000E-02  0.00000E+00  5.00000E-02  1.00000E-02  1.00000E-04
GW   276     1  -1.91342E-02  4.61940E-02  1.00000E-02 -1.91342E-02  4.61940E-02  0.00000E+00  1.00000E-04
GW   277     1  -1.91342E-02  4.61940E-02  1.00000E-02 -9.75452E-03  4.90393E-02  1.00000E-02  1.00000E-04
GW   278     1  -2.77785E-02  4.15735E-02  1.00000E-02 -2.77785E-02  4.15735E-02  0.00000E+00  1.00000E-04
GW   279     1  -2.77785E-02  4.15735E-02  1.00000E-02 -1.91342E-02  4.61940E-02  1.00000E-02  1.00000E-04
GW   280     1  -3.53553E-02  3.53553E-02  1.00000E-02 -3.53553E-02  3.53553E-02  0.00000E+00  1.00000E-04