CM --- NEC2 Input File created or edited by xnec2c 4.4.16 ---
CM L antenna with GND plane
CE --- End Comments ---
GW     1    72   0.00000E+00  0.00000E+00  0.00000E+00  0.00000E+00  0.00000E+00  7.20000E-02  3.00000E-04
GW     2    36   0.00000E+00  0.00000E+00  7.20000E-02  3.60000E-02  0.00000E+00  7.20000E-02  3.00000E-04
GE     1     0   0.00000E+00  0.00000E+00  0.00000E+00  0.00000E+00  0.00000E+00  0.00000E+00  0.00000E+00
FR     0   101     0      0  2.00000E+03  1.00000E+01  3.00000E+03  0.00000E+00  0.00000E+00  0.00000E+00
GN     1     0     0      0  0.00000E+00  0.00000E+00  0.00000E+00  0.00000E+00  0.00000E+00  0.00000E+00
EX     0     1     1      0  1.00000E+00  0.00000E+00  0.00000E+00  0.00000E+00  0.00000E+00  0.00000E+00
RP     0    18    72   1500  0.00000E+00  0.00000E+00  5.00000E+00  5.00000E+00  0.00000E+00  0.00000E+00
EN     0     0     0      0  0.00000E+00  0.00000E+00  0.00000E+00  0.00000E+00  0.00000E+00  0.00000E+00
