CM --- NEC2 Input File created or edited by xnec2c 4.4.16 ---
CE --- End Comments ---
GW     1    15  -4.35000E-01 -4.35000E-01  0.00000E+00 -4.35000E-01  4.35000E-01  0.00000E+00  1.00000E-02
GW     4    15  -4.35000E-01 -4.35000E-01  0.00000E+00  4.35000E-01 -4.35000E-01  0.00000E+00  1.00000E-02
GW     2    15   4.35000E-01  4.35000E-01  0.00000E+00 -4.35000E-01  4.35000E-01  0.00000E+00  1.00000E-02
GW     3    15   4.35000E-01  4.35000E-01  0.00000E+00  4.35000E-01 -4.35000E-01  0.00000E+00  1.00000E-02
GM     4     3   0.00000E+00  0.00000E+00  0.00000E+00  1.50000E+00  0.00000E+00  0.00000E+00  1.00000E+00
GM    16     4   0.00000E+00  0.00000E+00  0.00000E+00  0.00000E+00  1.50000E+00  0.00000E+00  1.00000E+00
GE     0     0   0.00000E+00  0.00000E+00  0.00000E+00  0.00000E+00  0.00000E+00  0.00000E+00  0.00000E+00
EX     0     1     8      1  1.00000E+00  0.00000E+00  0.00000E+00  0.00000E+00  0.00000E+00  0.00000E+00
FR     0   121     0      0  6.00000E+01  5.00000E-01  1.20000E+02  0.00000E+00  0.00000E+00  0.00000E+00
NH     0     0     0      0  0.00000E+00  0.00000E+00  0.00000E+00  0.00000E+00  0.00000E+00  0.00000E+00
NE     0    10     1     10 -1.35000E+00  0.00000E+00 -1.35000E+00  3.00000E-01  0.00000E+00  3.00000E-01
RP     0    19    37   1000  0.00000E+00  0.00000E+00  1.00000E+01  1.00000E+01  0.00000E+00  0.00000E+00
LD     5     3     0      0  5.96000E+07  0.00000E+00  0.00000E+00  0.00000E+00  0.00000E+00  0.00000E+00
LD     5     4     0      0  5.96000E+07  0.00000E+00  0.00000E+00  0.00000E+00  0.00000E+00  0.00000E+00
LD     5     1     0      0  5.96000E+07  0.00000E+00  0.00000E+00  0.00000E+00  0.00000E+00  0.00000E+00
LD     5     2     0      0  5.96000E+07  0.00000E+00  0.00000E+00  0.00000E+00  0.00000E+00  0.00000E+00
LD     4     5     8      8  5.00000E+01  0.00000E+00  0.00000E+00  0.00000E+00  0.00000E+00  0.00000E+00
LD     4     9     8      8  5.00000E+01  0.00000E+00  0.00000E+00  0.00000E+00  0.00000E+00  0.00000E+00
LD     4    13     8      8  5.00000E+01  0.00000E+00  0.00000E+00  0.00000E+00  0.00000E+00  0.00000E+00
LD     4    17     8      8  5.00000E+01  0.00000E+00  0.00000E+00  0.00000E+00  0.00000E+00  0.00000E+00
LD     4    21     8      8  5.00000E+01  0.00000E+00  0.00000E+00  0.00000E+00  0.00000E+00  0.00000E+00
LD     4    25     8      8  5.00000E+01  0.00000E+00  0.00000E+00  0.00000E+00  0.00000E+00  0.00000E+00
LD     4     1     8     8  5.00000E+01  0.00000E+00  0.00000E+00  0.00000E+00  0.00000E+00  0.00000E+00
EN     0     0     0      0  0.00000E+00  0.00000E+00  0.00000E+00  0.00000E+00  0.00000E+00  0.00000E+00
