CM --- NEC2 Input File created or edited by xnec2c 4.4.16 ---
CE --- End Comments ---
GW     1    15  -4.00000E-01 -4.00000E-01  7.50000E-01 -4.00000E-01  4.00000E-01  7.50000E-01  1.50000E-03
GX     1   100   0.00000E+00  0.00000E+00  0.00000E+00  0.00000E+00  0.00000E+00  0.00000E+00  0.00000E+00
GM     0     1   0.00000E+00  0.00000E+00  9.00000E+01  0.00000E+00  0.00000E+00  0.00000E+00  1.00000E+00
GE     0     0   0.00000E+00  0.00000E+00  0.00000E+00  0.00000E+00  0.00000E+00  0.00000E+00  0.00000E+00
EX     0     1     8      0  1.00000E+00  0.00000E+00  0.00000E+00  0.00000E+00  0.00000E+00  0.00000E+00
FR     0    57     0      0  7.00000E+01  1.00000E+00  1.26000E+02  0.00000E+00  0.00000E+00  0.00000E+00
NH     0     0     0      0  0.00000E+00  0.00000E+00  0.00000E+00  0.00000E+00  0.00000E+00  0.00000E+00
NE     0    10     1     10 -1.35000E+00  0.00000E+00 -1.35000E+00  3.00000E-01  0.00000E+00  3.00000E-01
RP     0    19    37   1000  0.00000E+00  0.00000E+00  1.00000E+01  1.00000E+01  0.00000E+00  0.00000E+00
EN     0     0     0      0  0.00000E+00  0.00000E+00  0.00000E+00  0.00000E+00  0.00000E+00  0.00000E+00
